Version 4.1
SHEET 1 880 680
WIRE -16 64 -96 64
WIRE -16 80 -16 64
WIRE 192 80 64 80
WIRE 336 80 192 80
WIRE 336 96 336 80
WIRE -96 112 -96 64
WIRE 192 112 192 80
WIRE -96 224 -96 192
WIRE 192 224 192 176
WIRE 192 224 -96 224
WIRE 336 224 336 176
WIRE 336 224 192 224
FLAG -96 224 0
FLAG 336 224 0
FLAG 192 64 Output_Voltage
SYMBOL res 80 64 R90
WINDOW 0 0 56 VBottom 2
WINDOW 3 32 56 VTop 2
SYMATTR InstName R1
SYMATTR Value 250
SYMBOL res 352 192 R180
WINDOW 0 36 76 Left 2
WINDOW 3 36 40 Left 2
SYMATTR InstName R2
SYMATTR Value 10K
SYMBOL diode 208 176 R180
WINDOW 0 24 64 Left 2
WINDOW 3 24 0 Left 2
SYMATTR InstName D
SYMATTR Value DZENER
SYMBOL voltage -96 96 R0
WINDOW 3 -23 176 Left 2
WINDOW 123 0 0 Left 0
WINDOW 39 0 0 Left 0
WINDOW 0 -174 5 Left 2
SYMATTR Value PULSE(4.05 4.55 0 1m 1m 0 2m)
SYMATTR InstName Input_Voltage
TEXT -112 0 Left 2 !.model DZENER D(BV=3.6 IBV=0.001)
TEXT -128 312 Left 2 !.tran 5m
