Version 4.1
SHEET 1 880 680
WIRE -16 64 -96 64
WIRE -16 80 -16 64
WIRE 192 80 64 80
WIRE 336 80 192 80
WIRE 336 96 336 80
WIRE -96 112 -96 64
WIRE 192 112 192 80
WIRE -96 224 -96 192
WIRE 192 224 192 176
WIRE 192 224 -96 224
WIRE 336 224 336 176
WIRE 336 224 192 224
FLAG -96 224 0
FLAG 336 224 0
FLAG 192 64 Regulated_Output
SYMBOL res 80 64 R90
WINDOW 0 0 56 VBottom 2
WINDOW 3 32 56 VTop 2
SYMATTR InstName R1
SYMATTR Value 250
SYMBOL res 352 192 R180
WINDOW 0 36 76 Left 2
WINDOW 3 36 40 Left 2
SYMATTR InstName R2
SYMATTR Value {RL}
SYMBOL diode 208 176 R180
WINDOW 0 24 64 Left 2
WINDOW 3 24 0 Left 2
SYMATTR InstName D
SYMATTR Value DZENER
SYMBOL voltage -96 96 R0
WINDOW 123 0 0 Left 0
WINDOW 39 0 0 Left 0
WINDOW 0 -190 16 Left 2
SYMATTR InstName Input_Voltage
SYMATTR Value 4.3
TEXT 352 56 Left 2 !.model DZENER D(BV=3.6 IBV=0.001)
TEXT 392 168 Left 2 !.param RL=100\n.step param RL 100 10000 1000\n.op
